C7H8
APtclcactv10052311153D 0   0.00000     0.00000
 
 15 15  0  0  0  0  0  0  0  0999 V2000
    2.4329    0.0000    0.0010 C   0  0  0  0  0  0  0  0  0  0  0  0
    0.9259    0.0000    0.0010 C   0  0  0  0  0  0  0  0  0  0  0  0
    0.2347    1.1972   -0.0006 C   0  0  0  0  0  0  0  0  0  0  0  0
   -1.1476    1.1972   -0.0006 C   0  0  0  0  0  0  0  0  0  0  0  0
   -1.8388   -0.0000    0.0007 C   0  0  0  0  0  0  0  0  0  0  0  0
   -1.1476   -1.1972    0.0014 C   0  0  0  0  0  0  0  0  0  0  0  0
    0.2347   -1.1971   -0.0030 C   0  0  0  0  0  0  0  0  0  0  0  0
    2.7962    0.0014    1.0286 H   0  0  0  0  0  0  0  0  0  0  0  0
    2.7962   -0.8907   -0.5116 H   0  0  0  0  0  0  0  0  0  0  0  0
    2.7962    0.8893   -0.5141 H   0  0  0  0  0  0  0  0  0  0  0  0
    0.7747    2.1325   -0.0016 H   0  0  0  0  0  0  0  0  0  0  0  0
   -1.6876    2.1325   -0.0011 H   0  0  0  0  0  0  0  0  0  0  0  0
   -2.9188   -0.0000    0.0015 H   0  0  0  0  0  0  0  0  0  0  0  0
   -1.6876   -2.1325    0.0027 H   0  0  0  0  0  0  0  0  0  0  0  0
    0.7747   -2.1325   -0.0025 H   0  0  0  0  0  0  0  0  0  0  0  0
  1  2  1  0  0  0  0
  2  3  1  0  0  0  0
  3  4  2  0  0  0  0
  4  5  1  0  0  0  0
  5  6  2  0  0  0  0
  6  7  1  0  0  0  0
  2  7  2  0  0  0  0
  1  8  1  0  0  0  0
  1  9  1  0  0  0  0
  1 10  1  0  0  0  0
  3 11  1  0  0  0  0
  4 12  1  0  0  0  0
  5 13  1  0  0  0  0
  6 14  1  0  0  0  0
  7 15  1  0  0  0  0
M  END
$$$$
